data_All_5F_terminated.cif

_audit_creation_date               2024-07-02
_audit_creation_method             'generated by MedeA 3.8.1'

_chemical_formula_sum              'HF29Li5P5'

_symmetry_space_group_name_H-M     'P1'
_symmetry_Int_Tables_number        1

_cell_length_a                     5.18294
_cell_length_b                     5.18294
_cell_length_c                     29.91170
_cell_angle_alpha                  90.00
_cell_angle_beta                   90.00
_cell_angle_gamma                  90.00
_cell_volume                       803.51
_cell_formula_units_Z              1

loop_
_atom_site_label
_atom_site_symmetry_multiplicity
_atom_site_Wyckoff_symbol
_atom_site_fract_x
_atom_site_fract_y
_atom_site_fract_z
_atom_site_occupancy
Li1      1 a   0.00000   0.00000   0.37519 1.0
Li2      1 a   0.00000   0.00000   0.62481 1.0
Li3      1 a   0.50000   0.50000   0.25553 1.0
Li4      1 a   0.50000   0.50000   0.74447 1.0
Li5      1 a   0.50000   0.50000   0.50000 1.0
F1       1 a   0.76763   0.76763   0.24595 1.0
F2       1 a   0.76763   0.23237   0.75405 1.0
F3       1 a   0.23237   0.76763   0.75405 1.0
F4       1 a   0.23237   0.23237   0.24595 1.0
F5       1 a   0.23237   0.23237   0.75405 1.0
F6       1 a   0.23237   0.76763   0.24595 1.0
F7       1 a   0.76763   0.23237   0.24595 1.0
F8       1 a   0.76763   0.76763   0.75405 1.0
F9       1 a   0.77699   0.77699   0.50000 1.0
F10      1 a   0.77699   0.22301   0.50000 1.0
F11      1 a   0.22301   0.77699   0.50000 1.0
F12      1 a   0.22301   0.22301   0.50000 1.0
F13      1 a   0.00000   0.00000   0.30153 1.0
F14      1 a   0.00000   0.00000   0.69847 1.0
F15      1 a   0.00000   0.00000   0.55454 1.0
F16      1 a   0.00000   0.00000   0.44546 1.0
F17      1 a   0.27691   0.27691   0.37627 1.0
F18      1 a   0.27691   0.72309   0.62373 1.0
F19      1 a   0.72309   0.27691   0.62373 1.0
F20      1 a   0.72309   0.72309   0.37627 1.0
F21      1 a   0.72309   0.72309   0.62373 1.0
F22      1 a   0.72309   0.27691   0.37627 1.0
F23      1 a   0.27691   0.72309   0.37627 1.0
F24      1 a   0.27691   0.27691   0.62373 1.0
F25      1 a   0.50000   0.50000   0.43083 1.0
F26      1 a   0.50000   0.50000   0.56917 1.0
F27      1 a   0.50000   0.50000   0.67813 1.0
F28      1 a   0.50000   0.50000   0.32187 1.0
P1       1 a   0.00000   0.00000   0.24730 1.0
P2       1 a   0.00000   0.00000   0.75270 1.0
P3       1 a   0.00000   0.00000   0.50000 1.0
P4       1 a   0.50000   0.50000   0.37632 1.0
P5       1 a   0.50000   0.50000   0.62368 1.0
H        1 a   0.46842   0.55127   0.80665 1.0
F29      1 a   0.48630   0.52732   0.77573 1.0
