data_CONTCAR_Li4p4f003

_audit_creation_date               2024-07-25
_audit_creation_method             'generated by MedeA 3.8.1'

_chemical_formula_sum              'HF29Li5P5'

_symmetry_space_group_name_H-M     'P1'
_symmetry_Int_Tables_number        1

_cell_length_a                     5.17943
_cell_length_b                     5.17943
_cell_length_c                     32.58680
_cell_angle_alpha                  90.00
_cell_angle_beta                   90.00
_cell_angle_gamma                  90.00
_cell_volume                       874.19
_cell_formula_units_Z              1

loop_
_atom_site_label
_atom_site_symmetry_multiplicity
_atom_site_Wyckoff_symbol
_atom_site_fract_x
_atom_site_fract_y
_atom_site_fract_z
_atom_site_occupancy
Li1      1 a  -0.00001   0.00001   0.27642 1.0
Li2      1 a  -0.00105  -0.00139   0.71920 1.0
Li3      1 a  -0.00000   0.00002   0.50006 1.0
Li4      1 a   0.50001   0.50003   0.38225 1.0
Li5      1 a   0.49978   0.49984   0.61119 1.0
F1       1 a   0.77695   0.77697   0.38623 1.0
F2       1 a   0.77644   0.22277   0.61099 1.0
F3       1 a   0.22258   0.77655   0.61111 1.0
F4       1 a   0.22309   0.22313   0.38621 1.0
F5       1 a   0.22274   0.22286   0.61137 1.0
F6       1 a   0.22309   0.77698   0.38623 1.0
F7       1 a   0.77695   0.22312   0.38623 1.0
F8       1 a   0.77646   0.77669   0.61072 1.0
F9       1 a   0.00002   0.00004   0.43638 1.0
F10      1 a   0.00138   0.00101   0.56108 1.0
F11      1 a  -0.00220  -0.00150   0.66076 1.0
F12      1 a  -0.00001   0.00003   0.33631 1.0
F13      1 a   0.26751   0.26753   0.26638 1.0
F14      1 a   0.26796   0.73172   0.72726 1.0
F15      1 a   0.73259   0.26735   0.72765 1.0
F16      1 a   0.73245   0.73247   0.26637 1.0
F17      1 a   0.73230   0.73203   0.72814 1.0
F18      1 a   0.73244   0.26752   0.26637 1.0
F19      1 a   0.26750   0.73246   0.26637 1.0
F20      1 a   0.26822   0.26757   0.72661 1.0
F21      1 a   0.27694   0.27699   0.49930 1.0
F22      1 a   0.27694   0.72302   0.49933 1.0
F23      1 a   0.72297   0.27699   0.49934 1.0
F24      1 a   0.72297   0.72301   0.49937 1.0
F25      1 a   0.50002   0.50002   0.31730 1.0
F26      1 a   0.50387   0.50161   0.67684 1.0
F27      1 a   0.49973   0.49981   0.54932 1.0
F28      1 a   0.50009   0.50011   0.44923 1.0
F29      1 a   0.46448   0.50786   0.81993 1.0
P1       1 a   0.00002   0.00005   0.38642 1.0
P2       1 a  -0.00041  -0.00025   0.61091 1.0
P3       1 a   0.49999   0.50000   0.26745 1.0
P4       1 a   0.50018   0.49960   0.72638 1.0
P5       1 a   0.49994   0.49999   0.49909 1.0
H1       1 a   0.52164   0.47624   0.84677 1.0
