data_surface_Li4PF4_Exposed_rpt.cif

_audit_creation_date               2024-07-10
_audit_creation_method             'generated by MedeA 3.8.1'

_chemical_formula_sum              'HF29Li5P5'

_symmetry_space_group_name_H-M     'P1'
_symmetry_Int_Tables_number        1

_cell_length_a                     5.17943
_cell_length_b                     5.17943
_cell_length_c                     32.58680
_cell_angle_alpha                  90.00
_cell_angle_beta                   90.00
_cell_angle_gamma                  90.00
_cell_volume                       874.19
_cell_formula_units_Z              1

loop_
_atom_site_label
_atom_site_symmetry_multiplicity
_atom_site_Wyckoff_symbol
_atom_site_fract_x
_atom_site_fract_y
_atom_site_fract_z
_atom_site_occupancy
Li1      1 a  -0.00291  -0.00015   0.27763 1.0
Li2      1 a   0.00184   0.00194   0.71884 1.0
Li3      1 a   0.00029   0.00065   0.49814 1.0
Li4      1 a   0.49978   0.50333   0.38554 1.0
Li5      1 a   0.50031   0.49870   0.61078 1.0
F1       1 a   0.76164   0.80220   0.37858 1.0
F2       1 a   0.80354   0.24156   0.60233 1.0
F3       1 a   0.19638   0.75565   0.61773 1.0
F4       1 a   0.23802   0.20637   0.39421 1.0
F5       1 a   0.23861   0.20000   0.61774 1.0
F6       1 a   0.19683   0.76131   0.39396 1.0
F7       1 a   0.80296   0.24671   0.37883 1.0
F8       1 a   0.76130   0.79660   0.60234 1.0
F9       1 a  -0.06788   0.00926   0.43545 1.0
F10      1 a   0.06765  -0.00784   0.56099 1.0
F11      1 a  -0.06914   0.00488   0.65885 1.0
F12      1 a   0.06893  -0.00100   0.33758 1.0
F13      1 a   0.26142   0.26735   0.26217 1.0
F14      1 a   0.28092   0.73592   0.71986 1.0
F15      1 a   0.73592   0.26866   0.73557 1.0
F16      1 a   0.72000   0.73259   0.27558 1.0
F17      1 a   0.73804   0.73450   0.73428 1.0
F18      1 a   0.71944   0.26608   0.27558 1.0
F19      1 a   0.26193   0.73241   0.26218 1.0
F20      1 a   0.27829   0.26963   0.72105 1.0
F21      1 a   0.31518   0.24892   0.49096 1.0
F22      1 a   0.25244   0.69117   0.49057 1.0
F23      1 a   0.74855   0.31063   0.50576 1.0
F24      1 a   0.68586   0.75277   0.50540 1.0
F25      1 a   0.43362   0.49959   0.31912 1.0
F26      1 a   0.56932   0.49711   0.67756 1.0
F27      1 a   0.43485   0.49345   0.54729 1.0
F28      1 a   0.56606   0.50844   0.44905 1.0
P1       1 a  -0.00008   0.00406   0.38645 1.0
P2       1 a  -0.00007  -0.00146   0.60997 1.0
P3       1 a   0.48896   0.49965   0.27005 1.0
P4       1 a   0.50933   0.50252   0.72646 1.0
P5       1 a   0.50047   0.50087   0.49817 1.0
H        1 a   0.57180   0.42701   0.82982 1.0
F29      1 a   0.41615   0.51879   0.83244 1.0
